[TITLE]


[OPTIONS]
AREA_UNITS     FT2
RATE_UNITS     MIN
SOLVER     RK5
COUPLING     NONE
COMPILER     NONE
TIMESTEP     600
ATOL     0.001
RTOL     0.0001

[SPECIES]
BULK CL2 MG 0.01 0.001

[COEFFICIENTS]
PARAMETER Kb 0.3
PARAMETER Kw 1

[TERMS]
Kf 1.5826e-4 * RE^0.88 / D

[PIPES]
RATE CL2 -Kb*CL2-(4/D)*Kw*Kf/(Kw+Kf)*CL2

[TANKS]
RATE CL2 -Kb*CL2

[SOURCES]
CONC 1 CL2 0.8 

[QUALITY]
NODE 26 CL2 0.1
Global CL2 0.5

[PARAMETERS]


[PATTERNS]
[REPORT]
NODES ALL
LINKS ALL
