[TITLE]
제목없음

[JUNCTIONS]
 2                                    73.3087
 3                                    74.9713
 9                                    77.7230
 11                                   75.0633
 12                                   73.5103
 49                                   68.0831
 53                                   41.3011
 54                                   45.3008
 55                                   44.2300
 56                                   40.4313
 57                                   45.2543
 58                                   41.3969
 73                                   45.0026
 74                                   40.5642
 79                                   42.8077
 80                                   41.5911
 81                                   41.9073
 84                                   62.9492
 85                                   63.1170
 90                                   43.6804
 91                                   44.4598
 92                                   45.6833
 93                                   49.6209
 94                                   44.5682
 95                                   43.8773
 96                                   45.2433
 97                                   46.0414
 98                                   50.0869
 99                                   49.9333
 100                                  51.1354
 101                                  50.2592
 102                                  44.9439
 103                                  47.3619
 104                                  47.9040
 105                                  51.5993
 106                                  51.3880
 107                                  45.3484
 108                                  45.9950
 109                                  51.4770
 110                                  50.5798
 111                                  45.6479
 112                                  44.7899
 115                                  64.3357
 116                                  70.2878
 117                                  45.3619
 118                                  57.5027
 119                                  51.9780
 120                                  68.1207
 121                                  70.5633
 122                                  70.3533
 132                                  70.3833
 133                                  70.0306
 136                                  70.3178
 137                                  70.5278
 144                                  70.0740
 147                                  57.8023
 148                                  57.8527
 150                                  70.0272
 151                                  69.9667
 152                                  70.2222
 153                                  70.1567
 154                                  56.8057
 155                                  57.2378
 156                                  67.9812
 162                                  57.9823
 163                                  57.4316
 164                                  70.1550
 165                                  70.0289
 168                                  68.5050
 169                                  68.2230
 172                                  51.7280
 173                                  51.6304
 176                                  56.8820
 177                                  57.5149
 178                                  56.8749
 179                                  57.5078
 180                                  53.1984
 181                                  53.2964
 183                                  55.9836
 184                                  56.4945
 186                                  58.0259
 187                                  52.1481
 188                                  54.5544
 189                                  57.1931
 190                                  57.7130
 191                                  57.9913
 192                                  51.6084
 193                                  51.2289
 194                                  55.3231
 195                                  55.3556
 196                                  51.7961
 197                                  57.0491
 198                                  55.6832
 199                                  56.7338
 200                                  56.9472
 201                                  51.6383
 202                                  57.1722
 203                                  57.3107
 204                                  54.9841
 205                                  55.4295
 206                                  54.2253
 207                                  54.6433
 208                                  56.8858
 209                                  56.3320
 217                                  46.1108
 218                                  49.4056
 219                                  46.2698
 220                                  48.1162
 221                                  59.1118
 222                                  59.5613
 223                                  57.2643
 224                                  60.0833
 225                                  57.1464
 226                                  56.9650
 227                                  59.2319
 228                                  59.0741
 229                                  57.3667
 230                                  55.1318
 231                                  57.3447
 232                                  58.5624
 233                                  58.3042
 234                                  58.5781
 235                                  58.4252
 236                                  58.5920
 237                                  59.5487
 238                                  57.4841
 239                                  56.4809
 247                                  56.0070
 248                                  61.6420
 266                                  58.5061
 267                                  56.0617
 275                                  59.8016
 276                                  46.4920
 277                                  46.3982
 278                                  45.5511
 279                                  46.2782
 280                                  50.2188
 281                                  50.9678
 282                                  46.8507
 283                                  47.3853
 284                                  48.2537
 285                                  48.7530
 286                                  46.7520
 287                                  46.6718
 288                                  46.4520
 289                                  46.7367
 290                                  51.5712
 291                                  49.7574
 292                                  45.8973
 293                                  51.3872
 294                                  46.2613
 295                                  46.6680
 296                                  47.2446
 297                                  47.7796
 298                                  49.5283
 299                                  50.3843
 300                                  49.5210
 301                                  49.2023
 302                                  48.2703
 303                                  48.7278
 304                                  44.9380
 305                                  43.8958
 306                                  45.2117
 307                                  45.5370
 308                                  49.6512
 309                                  51.3724
 310                                  47.3450
 311                                  46.8433
 312                                  49.0467
 313                                  48.2947
 314                                  47.8677
 315                                  47.1900
 316                                  44.8897
 317                                  64.1357
 318                                  55.9690
 319                                  50.0331
 320                                  50.7331
 321                                  51.2446
 322                                  45.8160
 323                                  46.8507
 324                                  45.7340
 325                                  50.1987
 326                                  49.4140
 327                                  50.8175
 328                                  50.8123
 332                                  47.0488
 333                                  46.9681
 334                                  48.4913
 335                                  47.7750
 336                                  46.7377
 337                                  44.9702
 338                                  54.2869
 345                                  56.7518
 346                                  54.9189
 347                                  56.5928
 348                                  57.4630
 349                                  44.5898
 350                                  43.7653
 357                                  54.4013
 358                                  59.3970
 359                                  57.5817
 360                                  58.3306
 361                                  56.9180
 362                                  56.6780
 366                                  45.4558
 367                                  44.9224
 368                                  48.7809
 369                                  48.8442
 370                                  46.6927
 371                                  46.7560
 374                                  51.5146
 375                                  58.6423
 376                                  55.8034
 380                                  40.1058
 381                                  40.8364
 383                                  42.7150
 384                                  42.5712
 393                                  54.7640
 394                                  56.7062
 395                                  55.4283
 396                                  55.5217
 397                                  57.3221
 398                                  57.0383
 403                                  55.7248
 404                                  54.0707
 405                                  55.4020
 406                                  54.5476
 409                                  56.0362
 410                                  56.0028
 411                                  45.7812
 412                                  44.9948
 415                                  55.8348
 416                                  56.1669
 420                                  48.6020
 421                                  49.3082
 422                                  55.5911
 423                                  54.3078
 424                                  55.8034
 425                                  54.2660
 426                                  52.3578
 427                                  52.2493
 428                                  51.8702
 429                                  46.7553
 430                                  47.1037
 431                                  46.7143
 432                                  46.7877
 433                                  51.9267
 434                                  50.6938
 435                                  46.8806
 436                                  46.0754
 437                                  48.2972
 438                                  44.4840
 439                                  49.4836
 440                                  49.4120
 441                                  51.3790
 442                                  53.0529
 443                                  46.0182
 444                                  53.4827
 445                                  52.2496
 446                                  45.2807
 447                                  46.3984
 448                                  46.1909
 449                                  47.4682
 450                                  47.4552
 451                                  45.3367
 452                                  52.1138
 453                                  50.3805
 454                                  50.7922
 455                                  50.6111
 456                                  51.0218
 457                                  50.3071
 458                                  50.7189
 459                                  54.2313
 460                                  44.5682
 461                                  53.4862
 462                                  52.7143
 463                                  45.7340
 464                                  44.8741
 465                                  53.3233
 466                                  46.0879
 467                                  49.2004
 468                                  48.4517
 469                                  52.1138
 470                                  52.5907
 471                                  49.9442
 472                                  49.0598
 473                                  39.5136
 474                                  41.8867
 475                                  38.6682
 476                                  39.9964
 477                                  40.0000
 478                                  39.6648
 479                                  40.7263
 480                                  40.6680
 481                                  41.2777
 482                                  41.0591
 483                                  40.4449
 484                                  40.3288
 485                                  40.1331
 486                                  40.4630
 487                                  39.7913
 488                                  41.8293
 489                                  40.5603
 490                                  39.7717
 491                                  39.9859
 492                                  40.5678
 493                                  41.0230
 494                                  43.1619
 495                                  43.9619
 496                                  43.4687
 497                                  44.0922
 498                                  43.1401
 499                                  39.5451
 500                                  42.5549
 501                                  42.0753
 502                                  41.6942
 503                                  40.5490
 504                                  42.4581
 505                                  42.2073
 506                                  39.5188
 507                                  40.6149
 508                                  41.7229
 509                                  42.4729
 510                                  42.6631
 511                                  43.3511
 512                                  40.1633
 513                                  44.4598
 514                                  43.5707
 515                                  43.4027
 516                                  40.1704
 517                                  42.3156
 518                                  42.3516
 519                                  41.8109
 520                                  41.8389
 521                                  45.7958
 522                                  45.4458
 523                                  42.9556
 524                                  42.3629
 525                                  40.5950
 526                                  40.1578
 527                                  44.4880
 528                                  44.0542
 529                                  42.4489
 530                                  41.7433
 531                                  39.6097
 532                                  39.7856
 533                                  38.2756
 534                                  38.2180
 535                                  38.7774
 536                                  40.1330
 537                                  39.8965
 538                                  39.9277
 539                                  43.6740
 540                                  45.0020
 541                                  44.5787
 542                                  41.2043
 543                                  41.8824
 544                                  39.8145
 545                                  39.5418
 546                                  39.4488
 547                                  38.9261
 548                                  39.9663
 549                                  43.7587
 550                                  39.0908
 551                                  40.1377
 552                                  39.9117
 553                                  38.1687
 554                                  38.9084
 555                                  40.7363
 556                                  40.9877
 557                                  38.6000
 558                                  35.8727
 559                                  40.1602
 560                                  39.4487
 561                                  40.1189
 562                                  41.2174
 563                                  39.9501
 564                                  38.8341
 565                                  40.1209
 566                                  40.4973
 567                                  40.6178
 568                                  40.9568
 569                                  40.6326
 570                                  40.4332
 571                                  39.9967
 572                                  40.2314
 573                                  40.7161
 574                                  40.8971
 575                                  40.9402
 576                                  40.2551
 577                                  39.9522
 578                                  40.3309
 579                                  40.0100
 580                                  39.8893
 581                                  39.3207
 582                                  36.3153
 583                                  39.0429
 584                                  40.2059
 585                                  40.4401
 586                                  38.2684
 587                                  39.6921
 588                                  39.5036
 589                                  39.8143
 590                                  39.4087
 591                                  39.7253
 592                                  40.0476
 593                                  39.9530
 594                                  39.8466
 595                                  39.7701
 596                                  39.2587
 597                                  39.5373
 598                                  39.7191
 599                                  39.5436
 600                                  40.8036
 601                                  40.7775
 602                                  42.0540
 603                                  40.8453
 604                                  41.0912
 605                                  45.6080
 606                                  43.6058
 607                                  43.0838
 608                                  42.9469
 609                                  42.7867
 610                                  41.2559
 611                                  41.6039
 612                                  41.0376
 613                                  41.9973
 614                                  42.3012
 615                                  41.5860
 616                                  41.3976
 617                                  41.3716
 618                                  40.6038
 619                                  40.5311
 620                                  42.7362
 621                                  43.5824
 622                                  40.9802
 623                                  40.7111
 624                                  45.6690
 625                                  41.1362
 626                                  47.5727
 627                                  35.8470
 628                                  35.9063
 629                                  45.3248
 630                                  44.7762
 631                                  43.4276
 632                                  43.7075
 633                                  42.2400
 634                                  42.2640
 635                                  41.4893
 636                                  41.3533
 637                                  59.1756
 638                                  59.8594
 639                                  60.3166
 640                                  59.7222
 641                                  58.5472
 642                                  46.5282
 643                                  46.3708
 644                                  39.3179
 645                                  42.4689
 646                                  40.0983
 647                                  41.4298
 648                                  40.7974
 649                                  40.7742
 650                                  41.2609
 651                                  41.1018
 652                                  41.3498
 653                                  41.0640
 654                                  40.6255
 655                                  40.9802
 656                                  41.3346
 657                                  41.3113
 658                                  41.1773
 659                                  40.9256
 660                                  41.1364
 661                                  40.8749
 662                                  41.1968
 663                                  41.2996
 664                                  40.5510
 665                                  40.7875
 666                                  61.2637
 667                                  64.7972
 670                                  72.1549
 671                                  76.5727
 672                                  59.7343
 673                                  60.0293
 674                                  65.3385
 675                                  61.7973
 676                                  51.4318
 677                                  39.3733
 678                                  39.5403
 679                                  40.1479
 680                                  39.8113
 681                                  39.8607
 682                                  39.2586
 683                                  42.8838
 684                                  43.3093
 685                                  41.3820
 686                                  46.8137
 687                                  51.4824
 688                                  60.8517
 689                                  41.4546
 690                                  41.1662
 691                                  41.1443
 692                                  40.7449
 693                                  39.8773
 694                                  39.8022
 695                                  40.3542
 696                                  40.8156
 697                                  39.2427
 698                                  39.2673
 699                                  53.4709
 700                                  32.7151
 701                                  42.9707
 702                                  57.3534
 703                                  59.7693
 704                                  36.2342
 705                                  35.9420
 706                                  40.8983
 707                                  42.8231
 708                                  41.8947
 709                                  40.3981
 710                                  56.6734
 713                                  69.8178
 714                                  72.3422
 715                                  69.2849
 716                                  69.5167
 717                                  61.4050
 718                                  68.6518
 719                                  70.9262
 720                                  73.6004
 721                                  65.5084
 722                                  69.7027
 723                                  62.1300
 724                                  70.5729
 725                                  70.1053
 726                                  64.3084
 727                                  50.0900
 728                                  51.7711
 729                                  51.2767
 730                                  51.3432
 731                                  47.1410
 732                                  47.1766
 733                                  41.6613
 734                                  41.8667
 735                                  70.9609
 736                                  68.5942
 737                                  42.7381
 738                                  42.2079
 739                                  41.6253
 740                                  41.6840
 741                                  41.7348
 742                                  42.8588
 743                                  46.5954
 744                                  39.5718
 745                                  45.5262
 746                                  39.3104
 747                                  48.0548
 748                                  51.3642
 749                                  44.7926
 750                                  55.6316
 751                                  56.4547
 752                                  50.6688
 753                                  49.5931
 754                                  48.9891
 755                                  41.2542
 756                                  45.2937
 757                                  47.3206
 758                                  48.5416
 759                                  49.0340
 760                                  52.2291
 761                                  48.9500
 762                                  46.3004
 763                                  47.9239
 764                                  41.8840
 765                                  41.9671
 766                                  41.7053
 767                                  44.0867
 768                                  44.0533
 769                                  42.0707
 770                                  42.3600
 771                                  41.8067
 772                                  41.2378
 773                                  41.6756
 774                                  56.0661
 775                                  52.4558
 776                                  51.8149
 777                                  54.1504
 778                                  41.8667
 779                                  43.7567
 780                                  45.1399
 781                                  44.3136
 782                                  44.3584
 783                                  44.5809
 784                                  44.7699
 785                                  60.2946
 786                                  47.9527
 787                                  45.8489
 788                                  54.2072
 789                                  55.0039
 790                                  51.2811
 791                                  51.8909
 792                                  52.3689
 793                                  51.8894
 794                                  46.3267
 795                                  45.6713
 796                                  49.7011
 797                                  49.9967
 801                                  60.5816
 802                                  50.6678
 803                                  50.7769
 804                                  49.2433
 805                                  49.9331
 806                                  54.3744
 807                                  57.6118
 808                                  45.2640
 809                                  45.1722
 810                                  58.0590
 811                                  57.3534
 812                                  51.1442
 813                                  61.6633
 814                                  60.6313
 815                                  50.0433
 816                                  46.0824
 828                                  61.7853
 831                                  60.2946
 838                                  37.0751
 839                                  35.8172
 840                                  39.7840
 841                                  35.9533
 842                                  34.1364
 843                                  34.3241
 844                                  39.8084
 845                                  40.5751
 846                                  33.8761
 847                                  34.8340
 848                                  35.0347
 849                                  35.9703
 850                                  39.5378
 851                                  41.8667
 852                                  39.7707
 853                                  50.2156
 854                                  37.6940
 855                                  45.3296
 856                                  47.2628
 857                                  34.7827
 858                                  34.6838
 859                                  34.4593
 860                                  45.1161
 861                                  44.0410
 862                                  34.9453
 863                                  36.9078