[TITLE]
제목없음

[JUNCTIONS]
;ID              	Elev        	Demand      	Pattern         
 2               	73.30867    	85.6666666666667	                	;
 3               	74.97134    	3.83333333333334	                	;
 9               	77.723      	3.6         	                	;
 11              	75.06333    	0           	                	;
 12              	73.51034    	0           	                	;
 49              	68.08311    	7.96666666666666	                	;
 53              	41.30111    	0           	                	;
 54              	45.30078    	0           	                	;
 55              	44.23       	0           	                	;
 56              	40.43133    	0           	                	;
 57              	45.25433    	0           	                	;
 58              	41.39689    	0           	                	;
 73              	45.00256    	0           	                	;
 74              	40.56422    	0           	                	;
 79              	42.80767    	1.43333333333333	                	;
 80              	41.59111    	0.633333333333333	                	;
 81              	41.90733    	0           	                	;
 84              	62.94922    	3.13333333333333	                	;
 85              	63.117      	1.8         	                	;
 90              	43.68044    	0           	                	;
 91              	44.45978    	0           	                	;
 92              	45.68333    	0           	                	;
 93              	49.62089    	0           	                	;
 94              	44.56822    	0           	                	;
 95              	43.87733    	0           	                	;
 96              	45.24333    	0           	                	;
 97              	46.04144    	0           	                	;
 98              	50.08689    	0           	                	;
 99              	49.93333    	0           	                	;
 100             	51.13544    	0           	                	;
 101             	50.25922    	0           	                	;
 102             	44.94389    	0           	                	;
 103             	47.36189    	0           	                	;
 104             	47.904      	0           	                	;
 105             	51.59933    	0           	                	;
 106             	51.388      	0           	                	;
 107             	45.34844    	0           	                	;
 108             	45.995      	0           	                	;
 109             	51.477      	0           	                	;
 110             	50.57978    	0           	                	;
 111             	45.64789    	0           	                	;
 112             	44.78989    	3.06666666666666	                	;
 115             	64.33566    	43.2333333333333	                	;
 116             	70.28778    	1.73333333333333	                	;
 117             	45.36189    	2.9         	                	;
 118             	57.50267    	16.9        	                	;
 119             	51.978      	0           	                	;
 120             	68.12067    	3.33333333333333	                	;
 121             	70.56333    	1.53333333333333	                	;
 122             	70.35333    	1.6         	                	;
 132             	70.38333    	0           	                	;
 133             	70.03056    	1           	                	;
 136             	70.31778    	0           	                	;
 137             	70.52778    	0           	                	;
 144             	70.07401    	0           	                	;
 147             	57.80233    	2.4         	                	;
 148             	57.85266    	0           	                	;
 150             	70.02722    	0           	                	;
 151             	69.96667    	0.4         	                	;
 152             	70.22222    	0           	                	;
 153             	70.15667    	0           	                	;
 154             	56.80567    	0           	                	;
 155             	57.23778    	0           	                	;
 156             	67.98122    	7.53333333333334	                	;
 162             	57.98233    	0           	                	;
 163             	57.43156    	10.2        	                	;
 164             	70.155      	0           	                	;
 165             	70.02889    	0           	                	;
 168             	68.505      	0           	                	;
 169             	68.223      	0           	                	;
 172             	51.728      	0           	                	;
 173             	51.63044    	0           	                	;
 176             	56.882      	0           	                	;
 177             	57.51489    	0           	                	;
 178             	56.87489    	0           	                	;
 179             	57.50778    	0           	                	;
 180             	53.19844    	0           	                	;
 181             	53.29644    	0           	                	;
 183             	55.98355    	0           	                	;
 184             	56.49445    	0           	                	;
 186             	58.02589    	0           	                	;
 187             	52.14811    	0           	                	;
 188             	54.55444    	0           	                	;
 189             	57.19311    	0           	                	;
 190             	57.713      	0           	                	;
 191             	57.99133    	0           	                	;
 192             	51.60844    	21.7333333333333	                	;
 193             	51.22889    	0           	                	;
 194             	55.32311    	15.2        	                	;
 195             	55.35556    	0           	                	;
 196             	51.79611    	0           	                	;
 197             	57.04911    	0           	                	;
 198             	55.68322    	44.0666666666667	                	;
 199             	56.73378    	2.63333333333333	                	;
 200             	56.94722    	0           	                	;
 201             	51.63833    	0           	                	;
 202             	57.17222    	0           	                	;
 203             	57.31067    	16.5333333333333	                	;
 204             	54.98411    	0           	                	;
 205             	55.42945    	0           	                	;
 206             	54.22533    	0           	                	;
 207             	54.64333    	0           	                	;
 208             	56.88578    	0           	                	;
 209             	56.332      	0           	                	;
 217             	46.11078    	0           	                	;
 218             	49.40556    	0           	                	;
 219             	46.26978    	0           	                	;
 220             	48.11622    	0           	                	;
 221             	59.11178    	0           	                	;
 222             	59.56133    	0           	                	;
 223             	57.26433    	0           	                	;
 224             	60.08333    	0           	                	;
 225             	57.14644    	0           	                	;
 226             	56.965      	0           	                	;
 227             	59.23189    	0           	                	;
 228             	59.07411    	0           	                	;
 229             	57.36666    	0           	                	;
 230             	55.13178    	0           	                	;
 231             	57.34467    	0           	                	;
 232             	58.56244    	0           	                	;
 233             	58.30422    	0           	                	;
 234             	58.57811    	0           	                	;
 235             	58.42522    	0           	                	;
 236             	58.592      	0           	                	;
 237             	59.54866    	0           	                	;
 238             	57.48411    	0           	                	;
 239             	56.48089    	0           	                	;
 247             	56.007      	0           	                	;
 248             	61.642      	0           	                	;
 266             	58.50611    	0           	                	;
 267             	56.06166    	0           	                	;
 275             	59.80156    	0           	                	;
 276             	46.492      	0           	                	;
 277             	46.39822    	0           	                	;
 278             	45.55111    	0           	                	;
 279             	46.27822    	0           	                	;
 280             	50.21878    	0           	                	;
 281             	50.96778    	0           	                	;
 282             	46.85067    	0           	                	;
 283             	47.38533    	0           	                	;
 284             	48.25367    	0           	                	;
 285             	48.753      	0           	                	;
 286             	46.752      	0           	                	;
 287             	46.67178    	0           	                	;
 288             	46.452      	0           	                	;
 289             	46.73667    	0           	                	;
 290             	51.57122    	0           	                	;
 291             	49.75745    	0           	                	;
 292             	45.89734    	0           	                	;
 293             	51.38722    	0           	                	;
 294             	46.26133    	0           	                	;
 295             	46.668      	0           	                	;
 296             	47.24456    	0           	                	;
 297             	47.77956    	0           	                	;
 298             	49.52834    	0           	                	;
 299             	50.38433    	0           	                	;
 300             	49.521      	0           	                	;
 301             	49.20233    	0           	                	;
 302             	48.27033    	0           	                	;
 303             	48.72778    	0           	                	;
 304             	44.938      	0           	                	;
 305             	43.89578    	0           	                	;
 306             	45.21167    	0           	                	;
 307             	45.537      	0           	                	;
 308             	49.65122    	0           	                	;
 309             	51.37244    	0           	                	;
 310             	47.345      	0           	                	;
 311             	46.84333    	0           	                	;
 312             	49.04667    	0           	                	;
 313             	48.29467    	0           	                	;
 314             	47.86766    	0           	                	;
 315             	47.19       	0           	                	;
 316             	44.88967    	0           	                	;
 317             	64.13567    	0           	                	;
 318             	55.969      	0           	                	;
 319             	50.03311    	0           	                	;
 320             	50.73311    	0           	                	;
 321             	51.24456    	0           	                	;
 322             	45.816      	0           	                	;
 323             	46.85067    	0           	                	;
 324             	45.734      	0           	                	;
 325             	50.19867    	0           	                	;
 326             	49.414      	0           	                	;
 327             	50.81755    	0           	                	;
 328             	50.81233    	0           	                	;
 332             	47.04878    	0           	                	;
 333             	46.96811    	0           	                	;
 334             	48.49133    	0           	                	;
 335             	47.775      	0           	                	;
 336             	46.73767    	0           	                	;
 337             	44.97022    	0           	                	;
 338             	54.28689    	0           	                	;
 345             	56.75178    	0           	                	;
 346             	54.91889    	0           	                	;
 347             	56.59278    	0           	                	;
 348             	57.463      	0           	                	;
 349             	44.58978    	0           	                	;
 350             	43.76533    	0           	                	;
 357             	54.40133    	0           	                	;
 358             	59.397      	0           	                	;
 359             	57.58167    	0           	                	;
 360             	58.33056    	0           	                	;
 361             	56.918      	0           	                	;
 362             	56.678      	0           	                	;
 366             	45.45578    	0           	                	;
 367             	44.92244    	0           	                	;
 368             	48.78089    	0           	                	;
 369             	48.84422    	0           	                	;
 370             	46.69267    	0           	                	;
 371             	46.756      	0           	                	;
 374             	51.51456    	24.3333333333333	                	;
 375             	58.64233    	0           	                	;
 376             	55.80344    	0           	                	;
 380             	40.10578    	0           	                	;
 381             	40.83644    	0           	                	;
 383             	42.715      	0           	                	;
 384             	42.57122    	0           	                	;
 393             	54.764      	0           	                	;
 394             	56.70622    	0           	                	;
 395             	55.42833    	0           	                	;
 396             	55.52167    	0           	                	;
 397             	57.32211    	0           	                	;
 398             	57.03833    	0           	                	;
 403             	55.72478    	0           	                	;
 404             	54.07067    	0           	                	;
 405             	55.402      	0           	                	;
 406             	54.54755    	0           	                	;
 409             	56.03622    	0           	                	;
 410             	56.00278    	0           	                	;
 411             	45.78122    	0           	                	;
 412             	44.99478    	0           	                	;
 415             	55.83478    	0           	                	;
 416             	56.16689    	0           	                	;
 420             	48.602      	0           	                	;
 421             	49.30822    	0           	                	;
 422             	55.59111    	0           	                	;
 423             	54.30778    	0           	                	;
 424             	55.80344    	0           	                	;
 425             	54.266      	0           	                	;
 426             	52.35778    	0           	                	;
 427             	52.24934    	0           	                	;
 428             	51.87022    	0           	                	;
 429             	46.75533    	0           	                	;
 430             	47.10367    	0           	                	;
 431             	46.71433    	0           	                	;
 432             	46.78767    	0           	                	;
 433             	51.92667    	0           	                	;
 434             	50.69378    	0           	                	;
 435             	46.88056    	0           	                	;
 436             	46.07545    	0           	                	;
 437             	48.29722    	0           	                	;
 438             	44.484      	0           	                	;
 439             	49.48355    	0           	                	;
 440             	49.412      	0           	                	;
 441             	51.379      	0           	                	;
 442             	53.05289    	0           	                	;
 443             	46.01822    	0           	                	;
 444             	53.48267    	0           	                	;
 445             	52.24956    	0           	                	;
 446             	45.28067    	0           	                	;
 447             	46.39845    	0           	                	;
 448             	46.19089    	0           	                	;
 449             	47.46822    	0           	                	;
 450             	47.45522    	0           	                	;
 451             	45.33667    	0           	                	;
 452             	52.11378    	0           	                	;
 453             	50.38045    	0           	                	;
 454             	50.79222    	0           	                	;
 455             	50.61111    	0           	                	;
 456             	51.02178    	0           	                	;
 457             	50.30711    	0           	                	;
 458             	50.71889    	0           	                	;
 459             	54.23133    	0           	                	;
 460             	44.56822    	0           	                	;
 461             	53.48622    	0           	                	;
 462             	52.71433    	0           	                	;
 463             	45.734      	0           	                	;
 464             	44.87411    	0           	                	;
 465             	53.32333    	0           	                	;
 466             	46.08789    	0           	                	;
 467             	49.20045    	0           	                	;
 468             	48.45167    	0           	                	;
 469             	52.11378    	0           	                	;
 470             	52.59067    	0           	                	;
 471             	49.94422    	0           	                	;
 472             	49.05978    	0           	                	;
 473             	39.51355    	0           	                	;
 474             	41.88667    	0           	                	;
 475             	38.66822    	0           	                	;
 476             	39.99644    	0           	                	;
 477             	40          	0           	                	;
 478             	39.66478    	0           	                	;
 479             	40.72633    	0           	                	;
 480             	40.668      	0           	                	;
 481             	41.27766    	0           	                	;
 482             	41.05911    	0           	                	;
 483             	40.44489    	0           	                	;
 484             	40.32878    	0           	                	;
 485             	40.13311    	0           	                	;
 486             	40.463      	0           	                	;
 487             	39.79133    	0           	                	;
 488             	41.82933    	0           	                	;
 489             	40.56033    	0           	                	;
 490             	39.77167    	0           	                	;
 491             	39.98589    	0           	                	;
 492             	40.56778    	0           	                	;
 493             	41.023      	0           	                	;
 494             	43.16189    	0           	                	;
 495             	43.96189    	0           	                	;
 496             	43.46867    	0           	                	;
 497             	44.09222    	0           	                	;
 498             	43.14011    	0           	                	;
 499             	39.54511    	0           	                	;
 500             	42.55489    	0           	                	;
 501             	42.07533    	0           	                	;
 502             	41.69422    	0           	                	;
 503             	40.549      	0           	                	;
 504             	42.45811    	0           	                	;
 505             	42.20733    	0           	                	;
 506             	39.51878    	0           	                	;
 507             	40.61489    	0           	                	;
 508             	41.72289    	0           	                	;
 509             	42.47289    	0           	                	;
 510             	42.66311    	0           	                	;
 511             	43.35111    	0           	                	;
 512             	40.16333    	0           	                	;
 513             	44.45978    	0           	                	;
 514             	43.57067    	0           	                	;
 515             	43.40266    	0           	                	;
 516             	40.17044    	0           	                	;
 517             	42.31556    	0           	                	;
 518             	42.35155    	0           	                	;
 519             	41.81089    	0           	                	;
 520             	41.83889    	0           	                	;
 521             	45.79578    	0           	                	;
 522             	45.44578    	0           	                	;
 523             	42.95555    	0           	                	;
 524             	42.36289    	0           	                	;
 525             	40.595      	0           	                	;
 526             	40.15778    	0           	                	;
 527             	44.488      	0           	                	;
 528             	44.05422    	0           	                	;
 529             	42.44889    	0           	                	;
 530             	41.74333    	0           	                	;
 531             	39.60966    	0           	                	;
 532             	39.78556    	0           	                	;
 533             	38.27555    	0           	                	;
 534             	38.218      	0           	                	;
 535             	38.77744    	0           	                	;
 536             	40.133      	0           	                	;
 537             	39.89645    	0           	                	;
 538             	39.92767    	0           	                	;
 539             	43.674      	0           	                	;
 540             	45.002      	0           	                	;
 541             	44.57867    	0           	                	;
 542             	41.20433    	0           	                	;
 543             	41.88244    	0           	                	;
 544             	39.81445    	0           	                	;
 545             	39.54178    	0           	                	;
 546             	39.44878    	0           	                	;
 547             	38.92611    	0           	                	;
 548             	39.96634    	0           	                	;
 549             	43.75867    	0           	                	;
 550             	39.09078    	0           	                	;
 551             	40.13766    	0           	                	;
 552             	39.91167    	0           	                	;
 553             	38.16867    	0           	                	;
 554             	38.90844    	0           	                	;
 555             	40.73633    	0           	                	;
 556             	40.98767    	0           	                	;
 557             	38.6        	0           	                	;
 558             	35.87267    	0           	                	;
 559             	40.16022    	0           	                	;
 560             	39.44867    	0           	                	;
 561             	40.11889    	0           	                	;
 562             	41.21745    	0           	                	;
 563             	39.95011    	0           	                	;
 564             	38.83411    	0           	                	;
 565             	40.12089    	0           	                	;
 566             	40.49733    	0           	                	;
 567             	40.61777    	0           	                	;
 568             	40.95678    	0           	                	;
 569             	40.63255    	0           	                	;
 570             	40.43322    	0           	                	;
 571             	39.99667    	0           	                	;
 572             	40.23145    	0           	                	;
 573             	40.71611    	0           	                	;
 574             	40.89711    	0           	                	;
 575             	40.94022    	0           	                	;
 576             	40.25511    	0           	                	;
 577             	39.95222    	0           	                	;
 578             	40.33089    	0           	                	;
 579             	40.01       	0           	                	;
 580             	39.88933    	0           	                	;
 581             	39.32067    	0           	                	;
 582             	36.31533    	0           	                	;
 583             	39.04289    	0           	                	;
 584             	40.20589    	0           	                	;
 585             	40.44011    	0           	                	;
 586             	38.26844    	0           	                	;
 587             	39.69211    	0           	                	;
 588             	39.50356    	0           	                	;
 589             	39.81433    	0           	                	;
 590             	39.40866    	0           	                	;
 591             	39.72533    	0           	                	;
 592             	40.04755    	0           	                	;
 593             	39.953      	0           	                	;
 594             	39.84656    	0           	                	;
 595             	39.77011    	0           	                	;
 596             	39.25867    	0           	                	;
 597             	39.53733    	0           	                	;
 598             	39.71911    	0           	                	;
 599             	39.54356    	0           	                	;
 600             	40.80355    	0           	                	;
 601             	40.77755    	0           	                	;
 602             	42.054      	0           	                	;
 603             	40.84533    	0           	                	;
 604             	41.09122    	0           	                	;
 605             	45.608      	0           	                	;
 606             	43.60578    	0           	                	;
 607             	43.08378    	0           	                	;
 608             	42.94689    	0           	                	;
 609             	42.78667    	0           	                	;
 610             	41.25589    	0           	                	;
 611             	41.60389    	0           	                	;
 612             	41.03756    	0           	                	;
 613             	41.99733    	0           	                	;
 614             	42.30122    	0           	                	;
 615             	41.586      	0           	                	;
 616             	41.39755    	0           	                	;
 617             	41.37156    	0           	                	;
 618             	40.60378    	0           	                	;
 619             	40.53111    	0           	                	;
 620             	42.73622    	0           	                	;
 621             	43.58244    	0           	                	;
 622             	40.98022    	0           	                	;
 623             	40.71111    	0           	                	;
 624             	45.669      	0           	                	;
 625             	41.13622    	0           	                	;
 626             	47.57267    	0           	                	;
 627             	35.847      	0           	                	;
 628             	35.90633    	0           	                	;
 629             	45.32478    	0           	                	;
 630             	44.77622    	0           	                	;
 631             	43.42756    	0           	                	;
 632             	43.70755    	0           	                	;
 633             	42.24       	0           	                	;
 634             	42.264      	0           	                	;
 635             	41.48933    	0           	                	;
 636             	41.35333    	0           	                	;
 637             	59.17556    	0           	                	;
 638             	59.85944    	0           	                	;
 639             	60.31656    	1.1         	                	;
 640             	59.72222    	0           	                	;
 641             	58.54722    	0           	                	;
 642             	46.52822    	0           	                	;
 643             	46.37078    	0           	                	;
 644             	39.31789    	0           	                	;
 645             	42.46889    	0           	                	;
 646             	40.09834    	0           	                	;
 647             	41.42978    	0           	                	;
 648             	40.79745    	0           	                	;
 649             	40.77422    	0           	                	;
 650             	41.26089    	0           	                	;
 651             	41.10178    	0           	                	;
 652             	41.34978    	0           	                	;
 653             	41.064      	0           	                	;
 654             	40.62555    	0           	                	;
 655             	40.98022    	0           	                	;
 656             	41.33456    	0           	                	;
 657             	41.31133    	0           	                	;
 658             	41.17733    	0           	                	;
 659             	40.92556    	0           	                	;