[TITLE]								
제목없음								
<projection>EPSG:5179</projection>								
								
[JUNCTIONS]								
;ID              	Elev        	Demand      	Pattern         					
32	73.56396	0	                	;				
34	72.54389	0	                	;				
35	72.67937	0	                	;				
38	74.85191	0	                	;				
39	74.01759	0	                	;				
42	74.0648	0	                	;				
43	73.60503	0	                	;				
44	74.112	0	                	;				
45	73.65223	0	                	;				
46	77.68643	0	                	;				
48	74.89605	0	                	;				
49	72.81791	0	                	;				
56	73.69943	0	                	;				
57	72.77377	0	                	;				
63	76.46511	0	                	;				
84	50.47944	0	                	;				
85	43.77902	0	                	;				
91	67.6656	0	                	;				
92	55.29557	0	                	;				
93	54.22694	0	                	;				
94	67.62666	0	                	;				
95	53.40682	0	                	;				
96	64.60336	0	                	;				
97	66.22134	0	                	;				
98	66.11468	0	                	;				
99	57.34013	0	                	;				
100	56.55043	0	                	;				
101	58.75497	0	                	;				
102	62.01645	0	                	;				
103	53.31275	0	                	;				
104	59.03508	0	                	;				
105	58.37845	0	                	;				
106	56.63725	0	                	;				
107	57.79035	0	                	;				
108	58.15102	0	                	;				
111	56.91214	0	                	;				
112	58.85821	0	                	;				
115	58.21584	0	                	;				
116	55.22186	0	                	;				
119	58.56574	0	                	;				
120	58.70985	0	                	;				
121	56.59211	0	                	;				
122	55.13319	0	                	;				
123	52.16825	0	                	;				
124	54.16158	0	                	;				
125	55.59784	0	                	;				
126	55.77308	0	                	;				
127	53.63181	0	                	;				
128	68.16	0	                	;				
132	67.7384	0	                	;				
133	65.23732	0	                	;				
134	64.53513	0	                	;				
137	40.86963	0	                	;				
138	46.438	0	                	;				
139	45.01996	0	                	;				
140	40.20335	0	                	;				
141	46.51755	0	                	;				
142	40.94367	0	                	;				
143	43.70242	0	                	;				
144	44.81343	0	                	;				
145	48.42145	0	                	;				
146	53.15014	0	                	;				
147	50.59991	0	                	;				
148	47.19565	0	                	;				
149	44.73269	0	                	;				
150	50.08597	0	                	;				
151	43.61326	0	                	;				
152	45.62557	0	                	;				
153	44.25213	0	                	;				
154	45.39312	0	                	;				
155	45.71771	0	                	;				
156	52.82491	0	                	;				
157	45.97895	0	                	;				
158	40.29586	0	                	;				
159	52.48118	0	                	;				
160	45.59784	0	                	;				
161	53.95087	0	                	;				
162	49.71947	0	                	;				
163	43.69402	0	                	;				
164	41.60012	0	                	;				
165	41.6469	0	                	;				
166	61.69449	0	                	;				
167	62.40475	0	                	;				
168	62.83667	0	                	;				
169	62.38618	0	                	;				
170	62.74451	0	                	;				
171	62.58132	0	                	;				
172	62.99783	0	                	;				
173	62.67822	0	                	;				
174	43.71638	0	                	;				
175	44.63939	0	                	;				
176	46.77937	0	                	;				
177	49.51912	0	                	;				
178	44.59885	0	                	;				
179	44.37418	0	                	;				
180	45.82483	0	                	;				
181	46.36977	0	                	;				
182	49.87164	0	                	;				
183	49.09241	0	                	;				
184	50.69789	0	                	;				
185	50.20207	0	                	;				
186	45.52419	0	                	;				
187	46.93359	0	                	;				
188	47.59982	0	                	;				
189	50.96749	0	                	;				
190	50.76799	0	                	;				
191	46.19971	0	                	;				
192	46.44932	0	                	;				
193	51.06611	0	                	;				
194	50.33294	0	                	;				
195	46.29078	0	                	;				
196	45.68312	0	                	;				
197	62.68229	0	                	;				
198	62.9759	0	                	;				
199	62.80877	0	                	;				
200	68.77104	0	                	;				
201	46.08822	0	                	;				
202	57.55504	0	                	;				
203	52.01944	0	                	;				
204	67.97354	0	                	;				
205	69.11928	0	                	;				
206	68.55782	0	                	;				
207	68.08212	0	                	;				
208	69.24532	0	                	;				
209	69.39359	0	                	;				
210	72.19376	0	                	;				
211	62.00907	0	                	;				
212	64.01613	0	                	;				
213	64.5744	0	                	;				
214	68.65884	0	                	;				
215	76.42187	0	                	;				
216	69.97787	0	                	;				
217	69.27426	0	                	;				
218	65.8906	0	                	;				
219	64.79562	0	                	;				
220	70.05037	0	                	;				
221	70.40146	0	                	;				
222	70.46968	0	                	;				
223	72.83904	0	                	;				
224	64.78926	0	                	;				
225	65.30554	0	                	;				
226	64.19261	0	                	;				
227	62.84576	0	                	;				
228	69.82381	0	                	;				
229	54.80802	0	                	;				
230	54.36188	0	                	;				
231	57.81683	0	                	;				
232	57.86779	0	                	;				
233	55.96382	0	                	;				
234	69.20176	0	                	;				
235	69.41784	0	                	;				
236	68.70282	0	                	;				
237	68.91604	0	                	;				
238	56.78783	0	                	;				
239	57.26292	0	                	;				
240	67.76318	0	                	;				
241	66.71227	0	                	;				
242	65.4227	0	                	;				
243	69.24532	0	                	;				
244	55.64165	0	                	;				
245	57.74948	0	                	;				
246	57.98566	0	                	;				
247	57.48129	0	                	;				
248	68.84497	0	                	;				
249	69.20319	0	                	;				
250	57.82145	0	                	;				
251	56.50815	0	                	;				
252	68.43092	0	                	;				
253	68.29039	0	                	;				
254	60.83523	0	                	;				
255	61.20383	0	                	;				
256	51.87048	0	                	;				
257	51.69593	0	                	;				
258	57.74195	0	                	;				
259	57.57601	0	                	;				
260	56.83504	0	                	;				
261	57.57421	0	                	;				
262	56.86713	0	                	;				
263	57.49961	0	                	;				
264	53.15621	0	                	;				
265	53.25531	0	                	;				
266	57.85699	0	                	;				
267	56.1152	0	                	;				
268	56.61868	0	                	;				
269	50.49891	0	                	;				
270	58.01356	0	                	;				
271	52.1194	0	                	;				
272	54.52204	0	                	;				
273	57.1991	0	                	;				
274	57.71127	0	                	;				
275	58.00343	0	                	;				
276	50.55915	0	                	;				
277	50.55789	0	                	;				
278	54.29572	0	                	;				
279	55.5458	0	                	;				
280	51.94712	0	                	;				
281	57.04804	0	                	;				
282	56.11826	0	                	;				
283	56.75957	0	                	;				
284	56.95492	0	                	;				
285	51.76003	0	                	;				
286	57.17707	0	                	;				
287	57.30114	0	                	;				
288	55.00348	0	                	;				
289	55.45602	0	                	;				
290	54.47645	0	                	;				
291	54.95704	0	                	;				
292	56.83747	0	                	;				
293	56.27902	0	                	;				
294	63.78389	0	                	;				
295	63.78389	0	                	;				
296	63.78389	0	                	;				
297	61.14081	0	                	;				
298	63.97772	0	                	;				
299	62.91848	0	                	;				
300	62.65859	0	                	;				
301	45.60769	0	                	;				
302	49.50237	0	                	;				
303	45.8444	0	                	;				
304	47.31263	0	                	;				
305	59.12223	0	                	;				
306	59.56975	0	                	;				
307	59.08816	0	                	;				
308	60.03482	0	                	;				
309	57.28364	0	                	;				
310	57.13248	0	                	;				
311	59.90842	0	                	;				
312	59.60153	0	                	;				
313	58.57508	0	                	;				
314	55.13375	0	                	;				
315	57.52149	0	                	;				
316	59.89404	0	                	;				
317	58.31624	0	                	;				
318	60.14175	0	                	;				
319	60.68653	0	                	;				
320	58.59921	0	                	;				
321	60.36716	0	                	;				
322	57.4959	0	                	;				
323	56.48978	0	                	;				
324	57.91068	0	                	;				
325	58.81908	0	                	;				
326	64.74551	0	                	;				
327	60.83817	0	                	;				
328	62.21789	0	                	;				
329	58.38234	0	                	;				
330	64.83363	0	                	;				
331	56.01132	0	                	;				
332	61.63109	0	                	;				
333	57.93576	0	                	;				
334	57.7635	0	                	;				
335	57.6115	0	                	;				
336	56.39391	0	                	;				
337	60.43063	0	                	;				
338	58.3395	0	                	;				
339	57.70776	0	                	;				
340	57.73259	0	                	;				
341	53.84366	0	                	;				
342	58.82752	0	                	;				
343	57.83111	0	                	;				
344	57.33561	0	                	;				
345	62.22902	0	                	;				
346	57.45576	0	                	;				
347	57.34483	0	                	;				
348	58.31016	0	                	;				
349	56.19594	0	                	;				
350	58.55811	0	                	;				
351	56.00212	0	                	;				
352	57.01143	0	                	;				
353	61.94191	0	                	;				
354	64.90662	0	                	;				
355	58.45138	0	                	;				
356	64.00701	0	                	;				
357	61.83575	0	                	;				
358	58.03885	0	                	;				
359	60.2066	0	                	;				
360	46.52245	0	                	;				
361	46.25691	0	                	;				
362	45.37241	0	                	;				
363	46.03415	0	                	;				
364	50.22096	0	                	;				
365	50.96463	0	                	;				
366	46.86517	0	                	;				
367	47.37238	0	                	;				
368	48.24805	0	                	;				
369	48.74384	0	                	;				
370	46.76671	0	                	;				
371	46.55426	0	                	;				
372	46.4639	0	                	;				
373	46.72722	0	                	;				
374	50.12946	0	                	;				
375	49.75938	0	                	;				
376	45.90561	0	                	;				
377	51.39404	0	                	;				
378	46.27199	0	                	;				
379	46.65684	0	                	;				
380	47.23494	0	                	;				
381	47.76613	0	                	;				
382	49.52777	0	                	;				
383	50.37769	0	                	;				
384	49.55793	0	                	;				
385	49.18468	0	                	;				
386	48.26637	0	                	;				
387	48.17654	0	                	;				
388	44.93705	0	                	;				
389	43.88289	0	                	;				
390	45.21029	0	                	;				
391	45.53243	0	                	;				
392	49.65273	0	                	;				
393	49.85219	0	                	;				
394	47.38515	0	                	;				
395	46.82952	0	                	;				
396	49.06133	0	                	;				
397	48.27993	0	                	;				
398	47.87814	0	                	;				
399	47.16779	0	                	;				
400	44.89234	0	                	;				
401	64.08292	0	                	;				
402	55.97409	0	                	;				
403	49.62306	0	                	;				
404	49.27034	0	                	;				
405	51.25239	0	                	;				
406	45.80744	0	                	;				
407	46.87165	0	                	;				
408	45.69603	0	                	;				
409	50.17746	0	                	;				
410	49.45169	0	                	;				
411	50.82363	0	                	;				
412	50.80265	0	                	;				
413	79.61739	0	                	;				
414	58.5435	0	                	;				
415	57.81159	0	                	;				
416	47.03996	0	                	;				
417	46.93013	0	                	;				
418	48.5026	0	                	;				
419	47.75673	0	                	;				
420	46.73829	0	                	;				
421	44.87122	0	                	;				
422	54.32003	0	                	;				
423	58.67259	0	                	;				
424	56.38318	0	                	;				
425	60.96405	0	                	;				
426	61.08357	0	                	;				
427	54.26027	0	                	;				
428	54.27154	0	                	;				
429	56.79238	0	                	;				
430	54.98078	0	                	;				
431	56.2625	0	                	;				
432	58.6636	0	                	;				
433	44.59634	0	                	;				
434	43.43695	0	                	;				
435	55.9353	0	                	;				
436	58.77676	0	                	;				
437	60.03881	0	                	;				
438	61.88301	0	                	;				
439	61.12817	0	                	;				
440	59.81087	0	                	;				
441	54.39429	0	                	;				
442	59.37788	0	                	;				
443	57.29463	0	                	;				
444	58.36388	0	                	;				
445	56.95345	0	                	;				
446	56.65781	0	                	;				
447	60.22294	0	                	;				
448	62.4992	0	                	;				
449	55.54736	0	                	;				
450	45.30625	0	                	;				
451	44.92862	0	                	;				
452	47.92397	0	                	;				
453	47.98722	0	                	;				
454	46.6407	0	                	;				
455	46.70198	0	                	;				
456	57.77249	0	                	;				
457	62.86998	0	                	;				
458	53.20023	0	                	;				
459	58.52093	0	                	;				
460	55.80357	0	                	;				
461	53.05651	0	                	;				
462	54.26116	0	                	;				
463	54.16577	0	                	;				
464	40.10405	0	                	;				
465	40.81161	0	                	;				
466	58.91519	0	                	;				
467	42.6347	0	                	;				
468	42.5475	0	                	;				
469	58.92605	0	                	;				
470	59.00037	0	                	;				
471	58.92466	0	                	;				
472	57.9996	0	                	;				
473	53.26173	0	                	;				
474	54.14455	0	                	;				
475	54.08372	0	                	;				
476	54.24285	0	                	;				
477	54.95637	0	                	;				
478	56.74209	0	                	;				
479	55.39625	0	                	;				
480	55.5526	0	                	;				
481	58.53082	0	                	;				
482	57.0408	0	                	;				
483	50.07709	0	                	;				
484	55.58601	0	                	;				
485	52.42483	0	                	;				
486	52.33541	0	                	;				
487	55.72498	0	                	;				
488	54.47903	0	                	;				
489	55.39604	0	                	;				
490	54.55341	0	                	;				
491	54.47247	0	                	;				
492	53.12353	0	                	;				
493	56.05745	0	                	;				
494	56.0367	0	                	;				
495	45.78703	0	                	;				
496	44.99414	0	                	;				
497	50.94891	0	                	;				
498	53.9324	0	                	;				
499	55.83561	0	                	;				
500	56.17241	0	                	;				
501	54.03064	0	                	;				
502	54.28816	0	                	;				
503	49.95452	0	                	;				
504	48.58912	0	                	;				
505	48.47669	0	                	;				
506	55.58039	0	                	;				
507	54.33064	0	                	;				
508	55.80357	0	                	;				
509	54.26796	0	                	;				
510	53.52348	0	                	;				
511	53.49271	0	                	;				
512	53.36965	0	                	;				
513	46.61753	0	                	;				
514	46.91084	0	                	;				
515	46.5763	0	                	;				
516	46.61697	0	                	;				
517	51.92686	0	                	;				
518	50.72398	0	                	;				
519	48.5538	0	                	;				
520	46.5368	0	                	;				
521	48.12745	0	                	;				
522	44.47919	0	                	;				
523	49.14625	0	                	;				
524	49.11018	0	                	;				
525	51.04369	0	                	;				
526	53.08867	0	                	;				
527	46.4299	0	                	;				
528	53.37902	0	                	;				
529	52.31599	0	                	;				
530	45.04193	0	                	;				
531	46.21715	0	                	;				
532	46.11501	0	                	;				
533	47.16787	0	                	;				
534	47.12221	0	                	;				
535	45.0976	0	                	;				
536	52.21835	0	                	;				
537	50.38469	0	                	;				
538	50.79726	0	                	;				
539	50.60039	0	                	;				
540	51.00776	0	                	;				
541	50.31268	0	                	;				
542	50.72525	0	                	;				
543	54.0912	0	                	;				
544	44.59885	0	                	;				
545	53.29955	0	                	;				
546	52.18503	0	                	;				
547	45.77656	0	                	;				
548	45.08203	0	                	;				
549	53.00932	0	                	;				
550	46.33094	0	                	;				
551	49.18392	0	                	;				
552	48.47195	0	                	;				
553	52.1858	0	                	;				
554	52.65523	0	                	;				
555	49.95905	0	                	;				
556	49.07568	0	                	;				
557	39.51245	0	                	;				
558	42.23598	0	                	;				
559	38.82333	0	                	;				
560	39.99554	0	                	;				
561	39.99975	0	                	;				
562	39.67149	0	                	;				
563	40.85636	0	                	;				
564	40.67445	0	                	;				
565	41.38752	0	                	;				
566	41.06572	0	                	;				
567	40.4397	0	                	;				
568	40.32284	0	                	;				
569	40.13359	0	                	;				
570	40.46423	0	                	;				
571	39.79036	0	                	;				
572	41.8495	0	                	;				
573	40.56043	0	                	;				
574	40.02237	0	                	;				
575	40.10072	0	                	;				
576	40.56908	0	                	;				
577	41.0252	0	                	;				
578	43.24465	0	                	;				
579	44.2463	0	                	;				
580	43.62585	0	                	;				
581	44.42848	0	                	;				
582	43.18855	0	                	;				
583	39.54403	0	                	;				
584	42.71419	0	                	;				
585	42.07785	0	                	;				
586	41.71374	0	                	;				
587	40.54843	0	                	;				
588	42.65273	0	                	;				
589	42.25993	0	                	;				
590	39.5378	0	                	;				
591	40.73729	0	                	;				
592	41.74049	0	                	;				
593	42.48248	0	                	;				
594	42.62293	0	                	;				
595	43.3609	0	                	;				
596	40.16382	0	                	;				
597	44.51715	0	                	;				
598	43.58218	0	                	;				
599	43.41108	0	                	;				
600	40.17258	0	                	;				
601	42.32026	0	                	;				
602	42.3256	0	                	;				
603	41.77969	0	                	;				
604	41.8123	0	                	;				
605	45.45704	0	                	;				
606	45.35899	0	                	;				
607	42.94602	0	                	;				
608	42.39061	0	                	;				
609	40.6008	0	                	;				
610	40.15036	0	                	;				
611	44.53758	0	                	;				
612	44.08434	0	                	;				
613	42.43692	0	                	;				
614	41.76925	0	                	;				
615	39.5957	0	                	;				
616	39.78122	0	                	;				
617	38.10078	0	                	;				
618	37.83032	0	                	;				
619	38.10189	0	                	;				
620	40.13722	0	                	;				
621	39.88327	0	                	;				
622	39.93119	0	                	;				
623	43.73915	0	                	;				
624	45.03453	0	                	;				
625	44.72812	0	                	;				
626	41.21106	0	                	;				
627	41.89317	0	                	;				
628	39.82345	0	                	;				
629	39.55149	0	                	;				
630	39.44678	0	                	;				
631	38.6509	0	                	;				
632	39.96952	0	                	;				
633	43.85139	0	                	;				
634	38.81463	0	                	;				
635	40.12928	0	                	;				
636	39.9933	0	                	;				
637	38.03634	0	                	;				
638	38.55149	0	                	;				
639	40.72499	0	                	;				
640	40.97417	0	                	;				
641	38.68957	0	                	;				
642	35.82316	0	                	;				
643	40.15577	0	                	;				
644	38.9902	0	                	;				
645	40.1187	0	                	;				
646	42.17507	0	                	;				
647	39.95013	0	                	;				
648	38.89639	0	                	;				
649	40.12463	0	                	;				
650	40.50104	0	                	;				
651	40.61726	0	                	;				
652	40.95528	0	                	;				
653	40.63259	0	                	;				
654	40.43525	0	                	;				
655	39.99358	0	                	;				
656	40.24009	0	                	;				
657	40.70618	0	                	;				
658	40.89955	0	                	;				
659	40.9267	0	                	;				
660	40.26139	0	                	;				
661	39.95683	0	                	;				
662	40.33487	0	                	;				
663	40.01315	0	                	;				
664	39.88958	0	                	;				
665	39.31532	0	                	;				
666	36.27837	0	                	;				
667	39.018	0	                	;				
668	40.19273	0	                	;				
669	40.44191	0	                	;				
670	38.23829	0	                	;				
671	39.6946	0	                	;				
672	38.89478	0	                	;				
673	39.73071	0	                	;				
674	38.79573	0	                	;				
675	39.63167	0	                	;				
676	40.05032	0	                	;				
677	39.94448	0	                	;				
678	39.84175	0	                	;				
679	39.80247	0	                	;				
680	39.12399	0	                	;				
681	39.44497	0	                	;				
682	39.71418	0	                	;				
683	39.5606	0	                	;				
684	40.80564	0	                	;				
685	40.77849	0	                	;				
686	42.05126	0	                	;				
687	40.84396	0	                	;				
688	41.0855	0	                	;				
689	45.59847	0	                	;				
690	43.63445	0	                	;				
691	43.11676	0	                	;				
692	42.94204	0	                	;				
693	42.77188	0	                	;				
694	41.24585	0	                	;				
695	41.59097	0	                	;				
696	41.11269	0	                	;				
697	42.76775	0	                	;				
698	42.29484	0	                	;				
699	42.33221	0	                	;				
700	41.40154	0	                	;				
701	41.37327	0	                	;				
702	40.59696	0	                	;				
703	40.52891	0	                	;				
704	42.72624	0	                	;				
705	43.57542	0	                	;				
706	40.9771	0	                	;				
707	40.70755	0	                	;				
708	45.676	0	                	;				
709	41.21181	0	                	;				
710	47.57232	0	                	;				
711	35.81061	0	                	;				
712	35.84393	0	                	;				
713	45.33281	0	                	;				
714	44.76906	0	                	;				
715	43.43769	0	                	;				
716	43.71273	0	                	;				
717	42.24399	0	                	;				
718	42.26635	0	                	;				
719	41.48191	0	                	;				
720	41.38432	0	                	;				
721	59.87242	0	                	;				
722	59.78819	0	                	;				
723	60.22135	0	                	;				
724	59.73224	0	                	;				
725	58.56699	0	                	;				
726	46.0547	0	                	;				
727	46.36973	0	                	;				
728	39.31971	0	                	;				
729	42.62599	0	                	;				
730	41.07416	0	                	;				
731	41.49259	0	                	;				
732	41.45382	0	                	;				
733	41.42891	0	                	;				
734	41.3251	0	                	;				
735	41.34877	0	                	;				
736	41.41266	0	                	;				
737	41.07072	0	                	;				
738	40.62667	0	                	;				
739	40.98226	0	                	;				
740	41.53998	0	                	;				
741	41.52015	0	                	;				
742	41.25145	0	                	;				
743	40.91027	0	                	;				
744	41.12966	0	                	;				
745	40.86589	0	                	;				
746	41.96547	0	                	;				
747	41.48104	0	                	;				
748	40.55303	0	                	;				
749	40.79009	0	                	;				
750	61.83672	0	                	;				
751	64.74677	0	                	;				
752	61.03973	0	                	;				
753	60.58214	0	                	;				
754	72.17826	0	                	;				
755	76.60291	0	                	;				
756	59.72271	0	                	;				
757	60.26989	0	                	;				
758	65.35216	0	                	;				
759	62.73638	0	                	;				
760	51.89218	0	                	;				
761	40.93603	0	                	;				
762	40.88256	0	                	;				
763	40.13971	0	                	;				
764	39.81701	0	                	;				
765	40.91966	0	                	;				
766	40.55885	0	                	;				
767	42.90787	0	                	;				
768	43.30557	0	                	;				
769	42.22685	0	                	;				
770	46.83336	0	                	;				
771	51.44909	0	                	;				
772	61.22596	0	                	;				
773	41.45956	0	                	;				
774	41.17073	0	                	;				
775	40.73808	0	                	;				
776	40.42414	0	                	;				
777	40.3404	0	                	;				
778	40.35788	0	                	;				
779	40.36015	0	                	;				
780	40.82227	0	                	;				
781	39.62614	0	                	;				
782	39.69651	0	                	;				
783	53.42812	0	                	;				
784	32.72669	0	                	;				
785	42.98717	0	                	;				
786	59.13242	0	                	;				
787	61.26822	0	                	;				
788	36.24241	0	                	;				
789	35.94838	0	                	;				
790	40.69379	0	                	;				
791	42.42509	0	                	;				
792	40.63962	0	                	;				
793	40.18517	0	                	;				
794	56.68185	0	                	;				
795	65.96223	0	                	;				
796	66.84311	0	                	;				
797	67.23795	0	                	;				
798	68.80932	0	                	;				
799	69.12683	0	                	;				
800	69.02164	0	                	;				
801	61.87206	0	                	;				
802	67.17201	0	                	;				
803	68.43329	0	                	;				
804	71.26196	0	                	;				
805	65.80783	0	                	;				
806	67.12208	0	                	;				
807	62.52866	0	                	;				
808	69.537	0	                	;				
809	69.75519	0	                	;				
810	65.04618	0	                	;				
811	50.12547	0	                	;				
812	51.6526	0	                	;				
813	51.33536	0	                	;				
814	51.41082	0	                	;				
815	47.19764	0	                	;				
816	47.09015	0	                	;				
817	41.00175	0	                	;				
818	41.12856	0	                	;				
819	69.57286	0	                	;				
820	67.20255	0	                	;				
821	42.67414	0	                	;				
822	42.12748	0	                	;				
823	39.01455	0	                	;				
824	39.29923	0	                	;				
825	41.73153	0	                	;				
826	42.75375	0	                	;				
827	45.92472	0	                	;				
828	39.39466	0	                	;				
829	45.47888	0	                	;				
830	38.83309	0	                	;				
831	47.90746	0	                	;				
832	50.5639	0	                	;				
833	44.84067	0	                	;				
834	55.5143	0	                	;				
835	55.92244	0	                	;				
836	49.99225	0	                	;				
837	49.56217	0	                	;				
838	49.20515	0	                	;				
839	41.02246	0	                	;				
840	45.2053	0	                	;				
841	47.2296	0	                	;				
842	48.59487	0	                	;				
843	49.30808	0	                	;				
844	52.58184	0	                	;				
845	49.18924	0	                	;				
846	46.34556	0	                	;				
847	47.94637	0	                	;				
848	40.54472	0	                	;				
849	41.97327	0	                	;				
850	39.44796	0	                	;				
851	44.11447	0	                	;				
852	44.0928	0	                	;				
853	41.79022	0	                	;				
854	42.36748	0	                	;				
855	40.04379	0	                	;				
856	39.49174	0	                	;				
857	40.89048	0	                	;				
858	55.97498	0	                	;				
859	52.97813	0	                	;				
860	52.06671	0	                	;				
861	54.2948	0	                	;				
862	41.12856	0	                	;				
863	43.73618	0	                	;				
864	45.00839	0	                	;				
865	44.31327	0	                	;				
866	44.35461	0	                	;				
867	44.64138	0	                	;				
868	45.08778	0	                	;				
869	60.26557	0	                	;				
870	48.15614	0	                	;				
871	45.72807	0	                	;				