[TITLE]

[JUNCTIONS]
 1                                    46.8633
 2                                    48.6441
 3                                    48.8934
 4                                    49.0034
 5                                    49.1966
 6                                    48.6624
 7                                    51.1724
 8                                    51.2373
 9                                    46.8303
 10                                   47.2960
 11                                   46.7228
 12                                   47.1540
 13                                   46.5410
 14                                   47.3763
 15                                   47.1239
 16                                   46.2853
 17                                   47.2814
 18                                   48.6948
 19                                   48.3520
 20                                   48.6948
 21                                   49.8135
 22                                   49.0116
 23                                   49.3344
 24                                   45.1613
 25                                   46.0173
 26                                   45.1747
 28                                   45.1756
 29                                   45.7062
 30                                   45.1782
 31                                   46.3311
 32                                   45.1889
 33                                   45.2991
 34                                   45.2316
 35                                   45.3169
 36                                   46.3560
 37                                   46.9523

[RESERVOIRS]
 27                                   80.9410  1                             

[TANKS]

[PIPES]
 1                               1                               2                                    65.4319      80.0000     149.0000       0.0000       
 2                               2                               3                                    16.2495      50.0000     147.0000       0.0000       
 3                               3                               4                                     5.7425      25.0000      79.0000       0.0000       
 4                               3                               5                                    20.5409      50.0000     147.0000       0.0000       
 5                               5                               6                                    15.5210      40.0000      76.0000       0.0000       
 6                               5                               7                                    44.2532      50.0000     147.0000       0.0000       
 7                               7                               8                                     4.6485      25.0000      80.0000       0.0000       
 8                               1                               9                                     6.8524     100.0000     149.0000       0.0000       
 9                               9                               10                                   13.6820      20.0000      76.0000       0.0000       
 10                              9                               11                                    7.9144     100.0000     149.0000       0.0000       
 11                              11                              12                                   17.3815      25.0000      76.0000       0.0000       
 12                              11                              13                                   13.9896     100.0000     149.0000       0.0000       
 13                              13                              14                                   18.2782      20.0000      62.0000       0.0000       
 14                              13                              15                                   27.6957     100.0000     149.0000       0.0000       
 15                              15                              16                                   19.8400      50.0000      75.0000       0.0000       
 16                              15                              17                                    4.5251     100.0000     149.0000       0.0000       
 17                              17                              18                                   37.7541     100.0000     149.0000       0.0000       
 18                              18                              19                                   10.4507      40.0000      92.0000       0.0000       
 19                              18                              20                                    7.0569     100.0000     149.0000       0.0000       
 20                              20                              21                                   36.6267      25.0000      87.0000       0.0000       
 21                              20                              22                                    1.2324     100.0000     149.0000       0.0000       
 22                              22                              23                                    9.6532     100.0000      79.0000       0.0000       
 23                              17                              24                                  113.0851      80.0000      96.0000       0.0000       
 24                              24                              25                                   26.4291      25.0000      73.0000       0.0000       
 25                              24                              26                                   10.3084      80.0000      96.0000       0.0000       
 26                              26                              28                                    1.0018      50.0000     147.0000       0.0000       
 27                              28                              29                                   15.3031      25.0000      76.0000       0.0000       
 28                              28                              30                                    2.4303      50.0000     147.0000       0.0000       
 29                              30                              31                                   31.2797      25.0000      76.0000       0.0000       
 30                              30                              32                                   12.5676      50.0000     147.0000       0.0000       
 31                              32                              33                                   46.1436      25.0000      80.0000       0.0000       
 32                              32                              34                                    2.0145      50.0000     147.0000       0.0000       
 33                              34                              35                                   34.0931      13.0000      84.0000       0.0000       
 34                              34                              36                                   35.1735      50.0000     147.0000       0.0000       
 35                              36                              37                                   61.3997      25.0000      83.0000       0.0000       
 36                              27                              1                                  1000.0000     100.0000     149.0000       0.0000       

[PUMPS]

[VALVES]

[DEMANDS]
 1                                     0.000000  1                              
 2                                     0.000000  1                              
 3                                     0.000000  1                              
 4                                     0.020833  1                              
 5                                     0.000000  1                              
 6                                     0.393049  1                              
 7                                     0.000000  1                              
 8                                     0.011111  1                              
 9                                     0.000000  1                              
 10                                    0.030555  1                              
 11                                    0.000000  1                              
 12                                    0.068054  1                              
 13                                    0.000000  1                              
 14                                    0.006944  1                              
 15                                    0.000000  1                              
 16                                    0.406938  1                              
 17                                    0.000000  1                              
 18                                    0.000000  1                              
 19                                    0.281940  1                              
 20                                    0.000000  1                              
 21                                    0.104165  1                              
 22                                    0.000000  1                              
 23                                    0.309717  1                              
 24                                    0.000000  1                              
 25                                    0.045833  1                              
 26                                    0.000000  1                              
 28                                    0.000000  1                              
 29                                    0.051388  1                              
 30                                    0.000000  1                              
 31                                    0.000000  1                              
 32                                    0.000000  1                              
 33                                    0.000000  1                              
 34                                    0.000000  1                              
 35                                    0.000000  1                              
 36                                    0.000000  1                              
 37                                    0.000000  1                              

[EMITTERS]

[STATUS]

[PATTERNS]
 1                                     1.0000       1.0000       1.0000
 2                                     0.0000       0.0000       0.0002       0.0015       0.0065       0.0202
 2                                     0.0507       0.1095       0.2103       0.3637       0.5675       0.7913
 2                                     0.9661       1.0000       0.8388       0.5371       0.2431       0.0707
 2                                     0.0117       0.0010

[CURVES]

[CONTROLS]

[RULES]

[QUALITY]

[SOURCES]
 1                               SETPOINT      40.000000 2

[MIXING]

[REACTIONS]
 ORDER  BULK            1.00
 ORDER  WALL            1
 ORDER  TANK            1.00
 GLOBAL BULK            0.400000
 GLOBAL WALL            0.200000

[ENERGY]
 GLOBAL EFFIC        75.0000
 DEMAND CHARGE       0.0000

[TIMES]
 DURATION            10:00:00
 HYDRAULIC TIMESTEP  0:30:00
 QUALITY TIMESTEP    0:30:00
 REPORT TIMESTEP     0:30:00
 REPORT START        0:00:00
 PATTERN TIMESTEP    0:30:00
 PATTERN START       0:00:00
 RULE TIMESTEP       0:03:00
 START CLOCKTIME     0:00:00
 STATISTIC           NONE

[OPTIONS]
 UNITS               CMH
 PRESSURE            METERS
 HEADLOSS            H-W
 UNBALANCED          STOP
 QUALITY             Chlorine mg/L
 DEMAND MULTIPLIER   1.0000
 EMITTER EXPONENT    0.5000
 VISCOSITY           1.000000
 DIFFUSIVITY         1.000000
 SPECIFIC GRAVITY    1.000000
 TRIALS              40
 ACCURACY            0.00100000
 TOLERANCE           0.01000000
 CHECKFREQ           2
 MAXCHECK            10
 DAMPLIMIT           0.00000000

[REPORT]
 PAGESIZE            0
 STATUS              NO
 SUMMARY             NO
 ENERGY              NO
 MESSAGES            YES
 NODES               NONE
 LINKS               NONE
 Elevation           NO
 Demand              PRECISION 2
 Head                PRECISION 2
 Pressure            PRECISION 2
 Quality             PRECISION 2
 Length              NO
 Diameter            NO
 Flow                PRECISION 2
 Velocity            PRECISION 2
 Headloss            PRECISION 2
 Quality             NO
 State               NO
 Setting             NO
 Reaction            NO

[COORDINATES]
 1                                  4910.904000    7647.715000
 2                                  5877.739000    8131.132000
 3                                  5894.603000    8513.370000
 4                                  5990.162000    8462.780000
 5                                  5928.330000    8968.682000
 6                                  5574.198000    8985.546000
 7                                  6293.704000    9631.977000
 8                                  6299.325000    9738.778000
 9                                  4922.146000    7501.565000
 10                                 5242.551000    7484.701000
 11                                 4933.388000    7332.931000
 12                                 4523.045000    7338.552000
 13                                 4910.904000    7006.905000
 14                                 5315.626000    6950.693000
 15                                 4365.653000    6737.090000
 16                                 4742.269000    6574.077000
 17                                 4281.336000    6703.363000
 18                                 3488.755000    6371.716000
 19                                 3595.557000    6174.976000
 20                                 3325.742000    6360.474000
 21                                 2639.963000    6169.355000
 22                                 3292.016000    6360.474000
 23                                 3145.866000    6422.306000
 24                                 4775.996000    4303.137000
 25                                 4236.367000    4224.441000
 26                                 4804.102000    4095.155000
 28                                 4820.027000    4067.055000
 29                                 5117.780000    4097.954000
 30                                 4814.409000    4008.066000
 31                                 5471.713000    3791.774000
 32                                 4811.600000    3721.549000
 33                                 4575.645000    3044.582000
 34                                 4853.735000    3690.650000
 35                                 4710.476000    3047.391000
 36                                 5452.050000    3162.559000
 37                                 5780.702000    4156.942000
 27                                 3693.439000   10350.679000

[VERTICES]

[TAGS]

[LABELS]
;X-Coord             Y-Coord             Label & Anchor Node

[BACKDROP]
  DIMENSIONS  	0.000             	0.000             	10000.000         	10000.000         
 UNITS          	None
 FILE           	
 OFFSET         	0.00            	0.00            

[END]
